head     1.1;
branch   1.1.9;
access   ;
symbols  XFree86-4_4_0:1.1.9.1 xc:1.1.9;
locks    ; strict;
comment  @# @;


1.1
date     2004.12.15.18.16.06;  author tg;  state Exp;
branches 1.1.9.1;
next     ;

1.1.9.1
date     2004.12.15.18.16.06;  author tg;  state Exp;
branches ;
next     ;


desc
@@



1.1
log
@Initial revision
@
text
@
XCOMM $XFree86: xc/programs/Xserver/hw/xfree86/scanpci/module/Imakefile,v 1.2 2002/07/15 20:46:04 dawes Exp $

#define IHaveModules
#include <Server.tmpl>

MODPATHDEFINES = -DDEFAULT_MODULE_PATH=\"$(MODULEDIR)\"
   INCLUDES =	-I.. -I$(XF86SRC)/common -I$(XF86OSSRC) -I$(XF86OSSRC)/bus \
		-I$(SERVERSRC)/include -I$(SERVERSRC)/os \
		-I$(XINCLUDESRC) -I$(SERVERSRC)/Xext -I$(EXTINCSRC) \
		-I$(SERVERSRC)/Xi \
		-I$(FONTLIBSRC)/include -I$(XF86PARSERSRC) \
		-I$(XF86SRC)/loader $(VGAINCLUDES) -I$(XF86SRC)/rac

SRCS = xf86ScanPci.c xf86PciData.c

LinkSourceFile(xf86ScanPci.c,..)
LinkFile(xf86PciData.c,../xf86ScanPci.c)

ModuleObjectRule()

SpecialCObjectRule(xf86PciData,NullParameter,-DPCIDATA)

LibraryModuleTarget(scanpci,xf86ScanPci.o)

InstallLibraryModule(scanpci,$(MODULEDIR),.)

LibraryModuleTarget(pcidata,xf86PciData.o)

InstallLibraryModule(pcidata,$(MODULEDIR),.)

DependTarget()

InstallDriverSDKLibraryModule(scanpci,$(DRIVERSDKMODULEDIR),.)
InstallDriverSDKLibraryModule(pcidata,$(DRIVERSDKMODULEDIR),.)
@


1.1.9.1
log
@Import of XFree86(TM) 4.4.0, the exactly same as was imported
into ocvs under tag XFree86_4_4_0 path src/X-Window, as "X11"
module (for MirOS #8, probably MirOS #7 and maybe OpenBSD).
@
text
@@
